research/pmu_hybrid_dae_bayes/output/results/g1_orientation_sign.csv
pmu_id,bus,scale,branch_id,from_bus,to_bus,selected_terminal,selected_direction,i_from_re,i_from_im,i_to_re,i_to_im,s_from_p_mw,s_from_q_mvar,s_to_p_mw,s_to_q_mvar,active_loss_mw
PMU6,2,0.98,Line_1,1,2,to,2 -> 1,-0.11519226443404751,0.370302351848089,0.24919213336771584,0.349851465170282,-19.107557283767196,-35.895007137316654,19.119380932231724,-40.76370204907075,0.011823648464527992
PMU7,5,0.98,Line_7,4,5,to,5 -> 4,-1.6527319622256709,1.7972378431797154,1.6844591680654428,-1.658071073335563,-213.73698535592882,-143.54244151513552,214.19890208842588,135.7481007688886,0.461916732497059
PMU8,6,0.98,Line_9,5,6,to,6 -> 5,-4.392664903627221,1.1210236631702628,4.40224842131795,-1.0754273001317074,-486.05913630713246,-18.10513581131531,486.4700339757852,18.444644399097754,0.41089766865275124
PMU3,10,0.98,Line_16,10,11,from,10 -> 11,3.420088542685331,-0.24404676271259973,-3.4066551241986467,0.3210736883419827,366.13090722488926,-34.71409144781214,-365.6615957680899,31.372502743855513,0.46931145679934616
PMU5,19,0.98,Line_22,16,19,to,19 -> 16,-4.460312800278696,1.3018781054428317,4.506081526989715,-0.984290147467128,-484.5648690426927,-47.81699260732891,487.99995474185823,55.752240601261214,3.4350856991655405
PMU4,22,0.98,Line_27,21,22,to,22 -> 21,-5.990892974072556,1.4528635922179376,6.017492426121613,-1.184410146321781,-641.1333198737364,-63.35337106644431,644.161885868954,87.93330468452159,3.0285659952176047
PMU2,29,0.98,Line_33,26,29,to,29 -> 26,-1.4341270376693092,0.6862067598534374,1.597080472262013,0.3907520178143038,-162.92380120582428,-41.63975682352767,164.28910903719063,-58.92828597627986,1.3653078313663514
PMU1,39,0.98,Line_2,1,39,to,39 -> 1,0.11519226443405017,-0.3703023518480819,0.03156948996200537,1.135821047258375,19.10755728376733,35.89500713731587,-19.05013520395984,-115.47391313555771,0.057422079807491144
PMU6,2,0.99,Line_1,1,2,to,2 -> 1,0.13968158242871365,0.33587978972079924,0.0023737072662415315,0.38268810642555806,7.591253958628952,-37.38408501035801,-7.589385841430055,-39.382390015591625,0.0018681171988976786
PMU7,5,0.99,Line_7,4,5,to,5 -> 4,-1.7235080843540658,1.855497323172898,1.7576087647794552,-1.7169955815274136,-224.86817567603373,-143.65365371972482,225.36622094637707,136.45829516373976,0.49804527034334
PMU8,6,0.99,Line_9,5,6,to,6 -> 5,-4.367471293065378,1.2157300227977998,4.377805220318251,-1.170325955475846,-485.67048966790685,-20.521110068396233,486.08137847205813,20.86638533757177,0.41088880415128415
PMU3,10,0.99,Line_16,10,11,from,10 -> 11,3.3503778825166144,-0.3044543503915804,-3.33561950040772,0.3811995144372986,359.12744301955917,-33.347994674197025,-358.67564538758705,29.826341964320243,0.45179763197211287
PMU5,19,0.99,Line_22,16,19,to,19 -> 16,-4.365853631932112,1.406826207788967,4.418558167210656,-1.0904138630196556,-477.8324202844999,-50.23832665479886,481.178414357697,57.109899477129645,3.3459940731971187
PMU4,22,0.99,Line_27,21,22,to,22 -> 21,-5.9479019652343466,1.5964466803385875,5.980342475534287,-1.328722469758219,-640.0694428847244,-64.88233124284069,643.0916594307165,89.36923937372056,3.022216545992137
PMU2,29,0.99,Line_33,26,29,to,29 -> 26,-1.3993460523221204,0.7182627407100739,1.5844231590091493,0.35457300728824137,-160.75639264890063,-42.4323411909454,162.0863202001806,-58.404239053142426,1.3299275512799795
PMU1,39,0.99,Line_2,1,39,to,39 -> 1,-0.13968158242871276,-0.33587978972079213,0.28884220134977845,1.1009753292580626,-7.591253958629003,37.384085010357246,7.647989234879499,-116.98837238804347,0.056735276250496014
PMU6,2,1.0,Line_1,1,2,to,2 -> 1,0.3946027090292872,0.29643806218714985,-0.24450012289247125,0.42038388831084816,34.381125486467475,-38.68816290581959,-34.34350343920747,-37.63930629044577,0.03762204726000817
PMU7,5,1.0,Line_7,4,5,to,5 -> 4,-1.7929474469148587,1.9165429215127716,1.8294144976865176,-1.778756892359425,-235.99494946578957,-143.7018316957901,236.53094465754845,137.13632607154173,0.5359951917588717
PMU8,6,1.0,Line_9,5,6,to,6 -> 5,-4.340072389233455,1.311848827281949,4.351154980484978,-1.266652618357739,-485.27706849606176,-23.113676245070348,485.6880221962293,23.46624272342559,0.4109537001675676
PMU3,10,1.0,Line_16,10,11,from,10 -> 11,3.279364498881904,-0.3639438700898552,-3.2632831295928852,0.4403802503381655,352.1181655879496,-31.84565885214884,-351.68356572081996,28.148060261497037,0.4345998671296343
PMU5,19,1.0,Line_22,16,19,to,19 -> 16,-4.268720152591132,1.5095181609153059,4.328352707571902,-1.1944439844917483,-471.09739672486705,-52.74841201156843,474.35589061774516,58.577128528742485,3.258493892878107
PMU4,22,1.0,Line_27,21,22,to,22 -> 21,-5.901367101086512,1.7400078167632387,5.939647899199292,-1.4731470294178592,-639.0053674417205,-66.48475590952741,642.0214604039121,90.88352194186267,3.0160929621915784
PMU2,29,1.0,Line_33,26,29,to,29 -> 26,-1.3637493386944055,0.7496078936461217,1.5709220773143227,0.31861030061265794,-158.58776992668137,-43.255890098254156,159.8827985045774,-57.838644953561854,1.2950285778960335
PMU1,39,1.0,Line_2,1,39,to,39 -> 1,-0.39460270936250286,-0.29643806240131454,0.5461607222669711,1.061062928738373,-34.3811255162533,38.68816293477295,34.44996549542133,-117.99137921432323,0.06883997916803253
PMU6,2,1.01,Line_1,1,2,to,2 -> 1,0.6495782158422498,0.2519268826904195,-0.4914363278310603,0.46298748138700674,61.26365129729254,-39.80538802550229,-61.14412600717578,-35.531034865931964,0.11952529011676205
PMU7,5,1.01,Line_7,4,5,to,5 -> 4,-1.860971305472951,1.9803838873684185,1.8997974796320243,-1.8433647347419821,-247.11668997890337,-143.68635503418048,247.69247310852006,137.78185829374252,0.5757831296166955
PMU8,6,1.01,Line_9,5,6,to,6 -> 5,-4.310361663548022,1.4093837530001565,4.322191155172945,-1.36441111928508,-484.87860777061906,-25.884475368241034,485.28970549523143,26.245933637997567,0.41109772461237526
PMU3,10,1.01,Line_16,10,11,from,10 -> 11,3.207020226197425,-0.422512712154969,-3.189617852431237,0.4986130224914973,345.10297880694407,-30.205733612100417,-344.6852588249108,26.336335068871698,0.41771998203324756
PMU5,19,1.01,Line_22,16,19,to,19 -> 16,-4.168916182449496,1.6099178130597522,4.2354678227613745,-1.2963457563233476,-464.3597720818132,-55.34823037640746,467.53237018529734,60.15508235363185,3.1725981034841197
PMU4,22,1.01,Line_27,21,22,to,22 -> 21,-5.851222139859862,1.8835186480682609,5.895341671842557,-1.6176566488425834,-637.9410790011547,-68.16136356117897,640.9512811820027,92.47700261688124,3.0102021808480686
PMU2,29,1.01,Line_33,26,29,to,29 -> 26,-1.327332811836973,0.7802314687915377,1.5565706928587648,0.2828701860746037,-156.41790161543335,-44.11072800963803,157.67851786212654,-57.23106085439733,1.2606162466931892
PMU1,39,1.01,Line_2,1,39,to,39 -> 1,-0.6495782162029817,-0.25192688292494125,0.8035322005228709,1.016033080126924,-61.263651329282624,39.80538805731919,61.3575105021707,-118.4779401075897,0.09385917288807377
PMU6,2,1.02,Line_1,1,2,to,2 -> 1,0.9046153600691964,0.20228884683810833,-0.7384420436460113,0.5105544469523231,88.24056371908824,-40.73364595475142,-87.99248134576985,-33.05364767791608,0.24808237331839678
PMU7,5,1.02,Line_7,4,5,to,5 -> 4,-1.9274980385087872,2.047030604382172,1.9686759350767034,-1.9108300400363163,-258.2327554053154,-143.6064991488573,258.8501822368241,138.39447272553338,0.6174268315086806
PMU8,6,1.02,Line_9,5,6,to,6 -> 5,-4.278227793335489,1.508337555357798,4.290802401080299,-1.463604389575437,-484.4748271906976,-28.835358978367907,484.8861539844096,29.20739362074627,0.41132679371196446
PMU3,10,1.02,Line_16,10,11,from,10 -> 11,3.13331450541466,-0.48015675772239774,-3.1145931186333797,0.5558934100255328,338.08178058417286,-28.426669175815377,-337.6806202145008,24.389651615824313,0.401160369672084
PMU5,19,1.02,Line_22,16,19,to,19 -> 16,-4.066442878767347,1.7079864693054816,4.1399034958127245,-1.3960820649780885,-457.6195165926384,-58.0388826085307,460.70783804019317,61.84505840861657,3.08832144755479
PMU4,22,1.02,Line_27,21,22,to,22 -> 21,-5.797396153774341,2.0269486155281697,5.8473520679190925,-1.7622221046758852,-636.8765615345949,-69.91296255968425,639.8811132957111,94.15063360587018,3.004551761116204
PMU2,29,1.02,Line_33,26,29,to,29 -> 26,-1.2900914618007144,0.8101217046997906,1.5413614688661408,0.2473593608275415,-154.24675419380313,-44.997218534921075,155.4734507792762,-56.58099022132198,1.2266965854730643
PMU1,39,1.02,Line_2,1,39,to,39 -> 1,-0.9046153604585001,-0.20228884709331396,1.0609639403718774,0.9658278332029369,-88.24056375334499,40.73364598951481,88.37249769463303,-118.44233810370275,0.1319339412880396
